BEGIN OPTIONS
  [SAVE_FLOWS]
  [PRINT_FLOWS]
END OPTIONS
